data/opendss/singapore_geylang.dss
clear
set defaultbasefrequency=50.0
new circuit.singapore_geylang phases=1 bus1=0 basekv=66.0 mvasc3=9999999999 9999999999
new linecode.singapore_line_type_1 nphases=1.0 rmatrix = [0.22996230] xmatrix = [0.32507731] cmatrix = [0.00000000]
new linecode.singapore_line_type_3 nphases=1.0 rmatrix = [0.39057290] xmatrix = [0.32507731] cmatrix = [0.00000000]
new line.1 phases=1 bus1=1.1 bus2=21.1 linecode=singapore_line_type_1 length=1.1201850718997362
new line.2 phases=1 bus1=21.1 bus2=53.1 linecode=singapore_line_type_1 length=0.0838163957420871
new line.3 phases=1 bus1=53.1 bus2=130.1 linecode=singapore_line_type_1 length=0.9338643789830052
new line.4 phases=1 bus1=130.1 bus2=294.1 linecode=singapore_line_type_1 length=0.2190494196280779
new line.5 phases=1 bus1=294.1 bus2=33.1 linecode=singapore_line_type_1 length=0.4662866995308994
new line.6 phases=1 bus1=33.1 bus2=32.1 linecode=singapore_line_type_1 length=0.079635799388032
new line.7 phases=1 bus1=32.1 bus2=323.1 linecode=singapore_line_type_1 length=0.1402154252206003
new line.8 phases=1 bus1=323.1 bus2=322.1 linecode=singapore_line_type_1 length=0.1060052373124536
new line.9 phases=1 bus1=322.1 bus2=319.1 linecode=singapore_line_type_3 length=0.2406484250282187
new line.10 phases=1 bus1=1.1 bus2=37.1 linecode=singapore_line_type_1 length=0.3375468327854358
new line.11 phases=1 bus1=37.1 bus2=39.1 linecode=singapore_line_type_1 length=0.5661074556669603
new line.12 phases=1 bus1=39.1 bus2=41.1 linecode=singapore_line_type_1 length=0.1509921282594676
new line.13 phases=1 bus1=41.1 bus2=57.1 linecode=singapore_line_type_1 length=0.0775914285023279
new line.14 phases=1 bus1=57.1 bus2=314.1 linecode=singapore_line_type_1 length=0.7761283933157396
new line.15 phases=1 bus1=314.1 bus2=316.1 linecode=singapore_line_type_1 length=0.1001359493521669
new line.16 phases=1 bus1=316.1 bus2=317.1 linecode=singapore_line_type_1 length=0.1272850119985435
new line.17 phases=1 bus1=317.1 bus2=125.1 linecode=singapore_line_type_1 length=0.135645434219648
new line.18 phases=1 bus1=125.1 bus2=124.1 linecode=singapore_line_type_1 length=0.0820770594840842
new line.19 phases=1 bus1=124.1 bus2=318.1 linecode=singapore_line_type_1 length=0.1038738713333605
new line.20 phases=1 bus1=318.1 bus2=296.1 linecode=singapore_line_type_1 length=0.113103723590316
new line.21 phases=1 bus1=296.1 bus2=295.1 linecode=singapore_line_type_1 length=0.0945229050158653
new line.22 phases=1 bus1=295.1 bus2=279.1 linecode=singapore_line_type_3 length=0.0912980511817393
new line.23 phases=1 bus1=295.1 bus2=297.1 linecode=singapore_line_type_3 length=0.201148630157328
new line.24 phases=1 bus1=314.1 bus2=315.1 linecode=singapore_line_type_3 length=0.1556237700284627
new line.25 phases=1 bus1=1.1 bus2=38.1 linecode=singapore_line_type_1 length=0.7958136788481869
new line.26 phases=1 bus1=38.1 bus2=126.1 linecode=singapore_line_type_1 length=1.5332399319396002
new line.27 phases=1 bus1=126.1 bus2=127.1 linecode=singapore_line_type_1 length=0.095787108165247
new line.28 phases=1 bus1=127.1 bus2=307.1 linecode=singapore_line_type_1 length=0.1909067049972881
new line.29 phases=1 bus1=307.1 bus2=281.1 linecode=singapore_line_type_1 length=0.0919893618232832
new line.30 phases=1 bus1=281.1 bus2=305.1 linecode=singapore_line_type_3 length=0.0939466226510366
new line.31 phases=1 bus1=127.1 bus2=306.1 linecode=singapore_line_type_3 length=0.1329221190712557
new line.32 phases=1 bus1=1.1 bus2=40.1 linecode=singapore_line_type_1 length=1.0586305467615107
new line.33 phases=1 bus1=40.1 bus2=22.1 linecode=singapore_line_type_1 length=0.0936833032243314
new line.34 phases=1 bus1=22.1 bus2=15.1 linecode=singapore_line_type_1 length=0.0249587497998406
new line.35 phases=1 bus1=15.1 bus2=10.1 linecode=singapore_line_type_3 length=0.1101904344199421
new line.36 phases=1 bus1=1.1 bus2=43.1 linecode=singapore_line_type_3 length=0.640724331765878
new line.37 phases=1 bus1=43.1 bus2=5.1 linecode=singapore_line_type_1 length=0.0513973342302446
new line.38 phases=1 bus1=5.1 bus2=272.1 linecode=singapore_line_type_3 length=0.0962490902955824
new line.39 phases=1 bus1=272.1 bus2=273.1 linecode=singapore_line_type_3 length=0.1241513128291115
new line.40 phases=1 bus1=1.1 bus2=56.1 linecode=singapore_line_type_1 length=0.1212056123139086
new line.41 phases=1 bus1=56.1 bus2=11.1 linecode=singapore_line_type_1 length=0.1352643549607687
new line.42 phases=1 bus1=11.1 bus2=36.1 linecode=singapore_line_type_3 length=0.2022487280769243
new line.43 phases=1 bus1=1.1 bus2=58.1 linecode=singapore_line_type_1 length=1.117824098444327
new line.44 phases=1 bus1=58.1 bus2=298.1 linecode=singapore_line_type_1 length=1.4321522732920082
new line.45 phases=1 bus1=298.1 bus2=299.1 linecode=singapore_line_type_1 length=0.1149188445960244
new line.46 phases=1 bus1=299.1 bus2=292.1 linecode=singapore_line_type_1 length=0.155576236989175
new line.47 phases=1 bus1=292.1 bus2=291.1 linecode=singapore_line_type_1 length=0.1569255068010873
new line.48 phases=1 bus1=291.1 bus2=290.1 linecode=singapore_line_type_1 length=0.1334834177567668
new line.49 phases=1 bus1=290.1 bus2=113.1 linecode=singapore_line_type_1 length=0.0853990820990755
new line.50 phases=1 bus1=113.1 bus2=286.1 linecode=singapore_line_type_3 length=0.1244294742190246
new line.51 phases=1 bus1=286.1 bus2=287.1 linecode=singapore_line_type_3 length=0.1199756233447706
new line.52 phases=1 bus1=1.1 bus2=59.1 linecode=singapore_line_type_1 length=0.7123172831782721
new line.53 phases=1 bus1=59.1 bus2=60.1 linecode=singapore_line_type_1 length=0.1702170969242427
new line.54 phases=1 bus1=60.1 bus2=46.1 linecode=singapore_line_type_1 length=0.464653580533749
new line.55 phases=1 bus1=46.1 bus2=45.1 linecode=singapore_line_type_1 length=0.1573508400226997
new line.56 phases=1 bus1=45.1 bus2=62.1 linecode=singapore_line_type_1 length=0.1848896748990471
new line.57 phases=1 bus1=62.1 bus2=54.1 linecode=singapore_line_type_1 length=0.400547363511843
new line.58 phases=1 bus1=54.1 bus2=123.1 linecode=singapore_line_type_1 length=0.5418072223600965
new line.59 phases=1 bus1=123.1 bus2=16.1 linecode=singapore_line_type_1 length=0.2400109578543681
new line.60 phases=1 bus1=16.1 bus2=17.1 linecode=singapore_line_type_1 length=0.1209479291636283
new line.61 phases=1 bus1=17.1 bus2=102.1 linecode=singapore_line_type_1 length=0.2234280450376377
new line.62 phases=1 bus1=102.1 bus2=103.1 linecode=singapore_line_type_1 length=0.0971942597071909
new line.63 phases=1 bus1=103.1 bus2=92.1 linecode=singapore_line_type_1 length=0.0549434318668484
new line.64 phases=1 bus1=1.1 bus2=66.1 linecode=singapore_line_type_3 length=0.2187827557291668
new line.65 phases=1 bus1=66.1 bus2=67.1 linecode=singapore_line_type_1 length=0.1743278177818576
new line.66 phases=1 bus1=67.1 bus2=30.1 linecode=singapore_line_type_1 length=0.6504824993395897
new line.67 phases=1 bus1=30.1 bus2=31.1 linecode=singapore_line_type_1 length=0.104727358067919
new line.68 phases=1 bus1=31.1 bus2=14.1 linecode=singapore_line_type_1 length=0.0268053662973079
new line.69 phases=1 bus1=14.1 bus2=19.1 linecode=singapore_line_type_3 length=0.1713172184373437
new line.70 phases=1 bus1=66.1 bus2=69.1 linecode=singapore_line_type_3 length=0.2393927860015646
new line.71 phases=1 bus1=1.1 bus2=68.1 linecode=singapore_line_type_1 length=0.3041878580262389
new line.72 phases=1 bus1=68.1 bus2=29.1 linecode=singapore_line_type_1 length=0.48405965152887
new line.73 phases=1 bus1=29.1 bus2=18.1 linecode=singapore_line_type_1 length=0.3646695171714705
new line.74 phases=1 bus1=18.1 bus2=20.1 linecode=singapore_line_type_1 length=0.0935767202801934
new line.75 phases=1 bus1=20.1 bus2=313.1 linecode=singapore_line_type_1 length=0.5371976088683673
new line.76 phases=1 bus1=313.1 bus2=311.1 linecode=singapore_line_type_1 length=0.196659830997962
new line.77 phases=1 bus1=311.1 bus2=312.1 linecode=singapore_line_type_1 length=0.1429078863662529
new line.78 phases=1 bus1=312.1 bus2=288.1 linecode=singapore_line_type_1 length=0.268062844008132
new line.79 phases=1 bus1=288.1 bus2=280.1 linecode=singapore_line_type_1 length=0.0530829424109986
new line.80 phases=1 bus1=288.1 bus2=289.1 linecode=singapore_line_type_3 length=0.1188413142539995
new line.81 phases=1 bus1=289.1 bus2=72.1 linecode=singapore_line_type_3 length=0.1207081197108208
new line.82 phases=1 bus1=72.1 bus2=35.1 linecode=singapore_line_type_3 length=0.1135940704057723
new line.83 phases=1 bus1=280.1 bus2=77.1 linecode=singapore_line_type_3 length=0.11742832068039
new line.84 phases=1 bus1=280.1 bus2=129.1 linecode=singapore_line_type_3 length=0.1405916790215648
new line.85 phases=1 bus1=1.1 bus2=70.1 linecode=singapore_line_type_3 length=1.3617209684101093
new line.86 phases=1 bus1=70.1 bus2=23.1 linecode=singapore_line_type_1 length=0.4000078275965451
new line.87 phases=1 bus1=23.1 bus2=131.1 linecode=singapore_line_type_1 length=0.4740146695501223
new line.88 phases=1 bus1=131.1 bus2=128.1 linecode=singapore_line_type_1 length=0.2754964911057131
new line.89 phases=1 bus1=128.1 bus2=308.1 linecode=singapore_line_type_1 length=0.1770065506792391
new line.90 phases=1 bus1=308.1 bus2=95.1 linecode=singapore_line_type_3 length=0.2321092415408346
new line.91 phases=1 bus1=95.1 bus2=309.1 linecode=singapore_line_type_3 length=0.1266099945172618
new line.92 phases=1 bus1=309.1 bus2=304.1 linecode=singapore_line_type_3 length=0.1405797751289922
new line.93 phases=1 bus1=304.1 bus2=301.1 linecode=singapore_line_type_3 length=0.1291521681486999
new line.94 phases=1 bus1=301.1 bus2=303.1 linecode=singapore_line_type_3 length=0.1231077533644507
new line.95 phases=1 bus1=303.1 bus2=300.1 linecode=singapore_line_type_3 length=0.1371827574621435
new line.96 phases=1 bus1=300.1 bus2=293.1 linecode=singapore_line_type_3 length=0.1275849344358531
new line.97 phases=1 bus1=293.1 bus2=326.1 linecode=singapore_line_type_3 length=0.2102793200369321
new line.98 phases=1 bus1=326.1 bus2=327.1 linecode=singapore_line_type_3 length=0.106827466847941
new line.99 phases=1 bus1=327.1 bus2=325.1 linecode=singapore_line_type_3 length=0.1551616553235914
new line.100 phases=1 bus1=308.1 bus2=101.1 linecode=singapore_line_type_3 length=0.1891536141961073
new line.101 phases=1 bus1=101.1 bus2=97.1 linecode=singapore_line_type_3 length=0.179173819328643
new line.102 phases=1 bus1=325.1 bus2=321.1 linecode=singapore_line_type_3 length=0.2625758446506949
new line.103 phases=1 bus1=325.1 bus2=324.1 linecode=singapore_line_type_3 length=0.2019989687550969
new line.104 phases=1 bus1=23.1 bus2=64.1 linecode=singapore_line_type_3 length=0.1447005135309106
new line.105 phases=1 bus1=97.1 bus2=98.1 linecode=singapore_line_type_3 length=0.1276631794711822
new line.106 phases=1 bus1=95.1 bus2=96.1 linecode=singapore_line_type_3 length=0.1531296303914297
new line.107 phases=1 bus1=64.1 bus2=65.1 linecode=singapore_line_type_3 length=0.1312418642812408
new line.108 phases=1 bus1=326.1 bus2=320.1 linecode=singapore_line_type_3 length=0.296830219750204
new line.109 phases=1 bus1=1.1 bus2=274.1 linecode=singapore_line_type_1 length=0.9630103018484848
new line.110 phases=1 bus1=274.1 bus2=367.1 linecode=singapore_line_type_1 length=0.1454485048114874
new line.111 phases=1 bus1=367.1 bus2=329.1 linecode=singapore_line_type_1 length=0.1108820959511067
new line.112 phases=1 bus1=329.1 bus2=370.1 linecode=singapore_line_type_3 length=0.0596137186279929
new line.113 phases=1 bus1=370.1 bus2=369.1 linecode=singapore_line_type_3 length=0.0698446038059086
new line.114 phases=1 bus1=1.1 bus2=347.1 linecode=singapore_line_type_1 length=0.4067614634208263
new line.115 phases=1 bus1=347.1 bus2=346.1 linecode=singapore_line_type_1 length=0.128349458869954
new line.116 phases=1 bus1=346.1 bus2=348.1 linecode=singapore_line_type_1 length=0.0960566251229218
new line.117 phases=1 bus1=348.1 bus2=349.1 linecode=singapore_line_type_1 length=0.0770351274534277
new line.118 phases=1 bus1=349.1 bus2=363.1 linecode=singapore_line_type_1 length=0.2761278421061202
new line.119 phases=1 bus1=363.1 bus2=330.1 linecode=singapore_line_type_1 length=0.1692177092126197
new line.120 phases=1 bus1=330.1 bus2=338.1 linecode=singapore_line_type_1 length=0.0986352768575219
new line.121 phases=1 bus1=338.1 bus2=355.1 linecode=singapore_line_type_1 length=0.1160127103809304
new line.122 phases=1 bus1=355.1 bus2=379.1 linecode=singapore_line_type_3 length=0.0987132529724339
new line.123 phases=1 bus1=379.1 bus2=377.1 linecode=singapore_line_type_3 length=0.0991599226686461
new line.124 phases=1 bus1=1.1 bus2=353.1 linecode=singapore_line_type_3 length=0.5145891469576934
new line.125 phases=1 bus1=353.1 bus2=345.1 linecode=singapore_line_type_1 length=0.0566668272947344
new line.126 phases=1 bus1=345.1 bus2=357.1 linecode=singapore_line_type_1 length=0.1692325842104484
new line.127 phases=1 bus1=357.1 bus2=374.1 linecode=singapore_line_type_1 length=0.1907283914535602
new line.128 phases=1 bus1=374.1 bus2=331.1 linecode=singapore_line_type_1 length=0.2861359561494195
new line.129 phases=1 bus1=374.1 bus2=373.1 linecode=singapore_line_type_3 length=0.1536748560733729
new line.130 phases=1 bus1=373.1 bus2=354.1 linecode=singapore_line_type_3 length=0.2459904946591412
new line.131 phases=1 bus1=354.1 bus2=375.1 linecode=singapore_line_type_3 length=0.2982467439470717
new line.132 phases=1 bus1=375.1 bus2=332.1 linecode=singapore_line_type_3 length=0.4560902391831468
new line.133 phases=1 bus1=331.1 bus2=342.1 linecode=singapore_line_type_3 length=0.1189856611208475
new line.134 phases=1 bus1=357.1 bus2=358.1 linecode=singapore_line_type_3 length=0.0921896900997889
new line.135 phases=1 bus1=332.1 bus2=376.1 linecode=singapore_line_type_3 length=0.2585488760478336
new line.136 phases=1 bus1=342.1 bus2=341.1 linecode=singapore_line_type_3 length=0.4125553105868957
new line.137 phases=1 bus1=1.1 bus2=359.1 linecode=singapore_line_type_1 length=0.6662417100940067
new line.138 phases=1 bus1=359.1 bus2=333.1 linecode=singapore_line_type_1 length=0.3252228299933031
new line.139 phases=1 bus1=333.1 bus2=334.1 linecode=singapore_line_type_1 length=0.2024034281607836
new line.140 phases=1 bus1=334.1 bus2=335.1 linecode=singapore_line_type_1 length=0.2397146406172947
new line.141 phases=1 bus1=335.1 bus2=336.1 linecode=singapore_line_type_1 length=0.1777381334978145
new line.142 phases=1 bus1=336.1 bus2=337.1 linecode=singapore_line_type_1 length=0.1303921130900808
new line.143 phases=1 bus1=337.1 bus2=378.1 linecode=singapore_line_type_1 length=0.1063116060428504
new line.144 phases=1 bus1=378.1 bus2=387.1 linecode=singapore_line_type_1 length=0.1285696870148939
new line.145 phases=1 bus1=387.1 bus2=386.1 linecode=singapore_line_type_1 length=0.1509719698848912
new line.146 phases=1 bus1=386.1 bus2=388.1 linecode=singapore_line_type_1 length=0.1535526952739334
new line.147 phases=1 bus1=388.1 bus2=390.1 linecode=singapore_line_type_1 length=0.0938850490448819
new line.148 phases=1 bus1=390.1 bus2=340.1 linecode=singapore_line_type_1 length=0.1810695409311239
new line.149 phases=1 bus1=340.1 bus2=344.1 linecode=singapore_line_type_1 length=0.1142804450457015
new line.150 phases=1 bus1=344.1 bus2=389.1 linecode=singapore_line_type_3 length=0.106078742148727
new line.151 phases=1 bus1=389.1 bus2=328.1 linecode=singapore_line_type_3 length=0.1696452209558795
new line.152 phases=1 bus1=386.1 bus2=384.1 linecode=singapore_line_type_3 length=0.1298174279584152
new line.153 phases=1 bus1=384.1 bus2=385.1 linecode=singapore_line_type_3 length=0.1086492676342643
new line.154 phases=1 bus1=387.1 bus2=339.1 linecode=singapore_line_type_3 length=0.1252678257999198
new line.155 phases=1 bus1=339.1 bus2=382.1 linecode=singapore_line_type_3 length=0.0736327118849044
new line.156 phases=1 bus1=385.1 bus2=383.1 linecode=singapore_line_type_3 length=0.0880601287227147
new line.157 phases=1 bus1=1.1 bus2=361.1 linecode=singapore_line_type_1 length=0.8017601445379517
new line.158 phases=1 bus1=361.1 bus2=360.1 linecode=singapore_line_type_1 length=0.1028169993307362
new line.159 phases=1 bus1=360.1 bus2=362.1 linecode=singapore_line_type_1 length=0.1044816222815399
new line.160 phases=1 bus1=362.1 bus2=365.1 linecode=singapore_line_type_1 length=0.0908940289418242
new line.161 phases=1 bus1=365.1 bus2=364.1 linecode=singapore_line_type_1 length=0.1177862887392951
new line.162 phases=1 bus1=364.1 bus2=380.1 linecode=singapore_line_type_1 length=0.1053731207302465
new line.163 phases=1 bus1=380.1 bus2=356.1 linecode=singapore_line_type_1 length=0.1259539702957092
new line.164 phases=1 bus1=365.1 bus2=366.1 linecode=singapore_line_type_3 length=0.1003773076594428
new line.165 phases=1 bus1=365.1 bus2=368.1 linecode=singapore_line_type_3 length=0.088172928446966
new line.166 phases=1 bus1=356.1 bus2=381.1 linecode=singapore_line_type_3 length=0.1275496614598427
new line.167 phases=1 bus1=2.1 bus2=71.1 linecode=singapore_line_type_1 length=0.4276787816331994
new line.168 phases=1 bus1=71.1 bus2=169.1 linecode=singapore_line_type_1 length=0.2755558585673536
new line.169 phases=1 bus1=169.1 bus2=170.1 linecode=singapore_line_type_1 length=0.1136039014712072
new line.170 phases=1 bus1=170.1 bus2=172.1 linecode=singapore_line_type_1 length=0.1430998406069047
new line.171 phases=1 bus1=172.1 bus2=135.1 linecode=singapore_line_type_1 length=0.0613616196989198
new line.172 phases=1 bus1=135.1 bus2=154.1 linecode=singapore_line_type_3 length=0.0558498050657483
new line.173 phases=1 bus1=154.1 bus2=155.1 linecode=singapore_line_type_3 length=0.1211007159115621
new line.174 phases=1 bus1=170.1 bus2=173.1 linecode=singapore_line_type_3 length=0.1548010923021664
new line.175 phases=1 bus1=135.1 bus2=153.1 linecode=singapore_line_type_3 length=0.0514093759328182
new line.176 phases=1 bus1=2.1 bus2=110.1 linecode=singapore_line_type_1 length=0.1489483267609159
new line.177 phases=1 bus1=110.1 bus2=219.1 linecode=singapore_line_type_1 length=0.26991911031027
new line.178 phases=1 bus1=219.1 bus2=218.1 linecode=singapore_line_type_1 length=0.1115496730591706
new line.179 phases=1 bus1=218.1 bus2=247.1 linecode=singapore_line_type_1 length=0.1197660645571733
new line.180 phases=1 bus1=247.1 bus2=213.1 linecode=singapore_line_type_1 length=0.4844222847684313
new line.181 phases=1 bus1=213.1 bus2=206.1 linecode=singapore_line_type_1 length=0.1251035530523492
new line.182 phases=1 bus1=247.1 bus2=217.1 linecode=singapore_line_type_3 length=0.189667757964664
new line.183 phases=1 bus1=2.1 bus2=117.1 linecode=singapore_line_type_3 length=0.4222191330369
new line.184 phases=1 bus1=117.1 bus2=107.1 linecode=singapore_line_type_1 length=0.2428061435820574
new line.185 phases=1 bus1=107.1 bus2=106.1 linecode=singapore_line_type_3 length=0.1015015647937501
new line.186 phases=1 bus1=106.1 bus2=108.1 linecode=singapore_line_type_3 length=0.1243335836714608
new line.187 phases=1 bus1=108.1 bus2=264.1 linecode=singapore_line_type_3 length=0.1906369251990037
new line.188 phases=1 bus1=264.1 bus2=105.1 linecode=singapore_line_type_3 length=0.2362370653097039
new line.189 phases=1 bus1=107.1 bus2=118.1 linecode=singapore_line_type_3 length=0.1258762516664147
new line.190 phases=1 bus1=118.1 bus2=8.1 linecode=singapore_line_type_3 length=0.1215855158566043
new line.191 phases=1 bus1=105.1 bus2=263.1 linecode=singapore_line_type_3 length=0.1279535951186916
new line.192 phases=1 bus1=8.1 bus2=157.1 linecode=singapore_line_type_3 length=0.2369884136795741
new line.193 phases=1 bus1=2.1 bus2=134.1 linecode=singapore_line_type_1 length=0.7213443657724518
new line.194 phases=1 bus1=134.1 bus2=166.1 linecode=singapore_line_type_3 length=0.0474869543523511
new line.195 phases=1 bus1=166.1 bus2=165.1 linecode=singapore_line_type_3 length=0.0557524746157483
new line.196 phases=1 bus1=165.1 bus2=168.1 linecode=singapore_line_type_3 length=0.1076649417957315
new line.197 phases=1 bus1=168.1 bus2=151.1 linecode=singapore_line_type_3 length=0.1120086242991798
new line.198 phases=1 bus1=151.1 bus2=152.1 linecode=singapore_line_type_3 length=0.0749303594894716
new line.199 phases=1 bus1=134.1 bus2=167.1 linecode=singapore_line_type_3 length=0.0727038901916579
new line.200 phases=1 bus1=2.1 bus2=158.1 linecode=singapore_line_type_1 length=0.7761369653548934
...
new transformer.22kV_1_1 phases=1 windings=2 xscarray=[2.0] wdg=1 bus=1.1.0 conn=wye kv=22.0 kva=1000.0 %r=0.55 maxtap=1.1 mintap=0.9 wdg=2 bus=1secondary.1.0 conn=wye kv=0.4 kva=1000.0 %r=0.55 maxtap=1.1 mintap=0.9
new transformer.22kV_2_1 phases=1 windings=2 xscarray=[2.0] wdg=1 bus=2.1.0 conn=wye kv=22.0 kva=1000.0 %r=0.55 maxtap=1.1 mintap=0.9 wdg=2 bus=2secondary.1.0 conn=wye kv=0.4 kva=1000.0 %r=0.55 maxtap=1.1 mintap=0.9
new transformer.22kV_3_1 phases=1 windings=2 xscarray=[2.0] wdg=1 bus=3.1.0 conn=wye kv=22.0 kva=1000.0 %r=0.55 maxtap=1.1 mintap=0.9 wdg=2 bus=3secondary.1.0 conn=wye kv=0.4 kva=1000.0 %r=0.55 maxtap=1.1 mintap=0.9
new transformer.22kV_4_1 phases=1 windings=2 xscarray=[2.0] wdg=1 bus=4.1.0 conn=wye kv=22.0 kva=1000.0 %r=0.55 maxtap=1.1 mintap=0.9 wdg=2 bus=4secondary.1.0 conn=wye kv=0.4 kva=1000.0 %r=0.55 maxtap=1.1 mintap=0.9
new transformer.22kV_5_1 phases=1 windings=2 xscarray=[2.0] wdg=1 bus=5.1.0 conn=wye kv=22.0 kva=1000.0 %r=0.55 maxtap=1.1 mintap=0.9 wdg=2 bus=5secondary.1.0 conn=wye kv=0.4 kva=1000.0 %r=0.55 maxtap=1.1 mintap=0.9
new transformer.22kV_5_2 phases=1 windings=2 xscarray=[2.0] wdg=1 bus=5.1.0 conn=wye kv=22.0 kva=1000.0 %r=0.55 maxtap=1.1 mintap=0.9 wdg=2 bus=5secondary.1.0 conn=wye kv=0.4 kva=1000.0 %r=0.55 maxtap=1.1 mintap=0.9
new transformer.22kV_5_3 phases=1 windings=2 xscarray=[2.0] wdg=1 bus=5.1.0 conn=wye kv=22.0 kva=1000.0 %r=0.55 maxtap=1.1 mintap=0.9 wdg=2 bus=5secondary.1.0 conn=wye kv=0.4 kva=1000.0 %r=0.55 maxtap=1.1 mintap=0.9
new transformer.22kV_5_4 phases=1 windings=2 xscarray=[2.0] wdg=1 bus=5.1.0 conn=wye kv=22.0 kva=1000.0 %r=0.55 maxtap=1.1 mintap=0.9 wdg=2 bus=5secondary.1.0 conn=wye kv=0.4 kva=1000.0 %r=0.55 maxtap=1.1 mintap=0.9
new transformer.22kV_6_1 phases=1 windings=2 xscarray=[2.0] wdg=1 bus=6.1.0 conn=wye kv=22.0 kva=1000.0 %r=0.55 maxtap=1.1 mintap=0.9 wdg=2 bus=6secondary.1.0 conn=wye kv=0.4 kva=1000.0 %r=0.55 maxtap=1.1 mintap=0.9
new transformer.22kV_7_1 phases=1 windings=2 xscarray=[2.0] wdg=1 bus=7.1.0 conn=wye kv=22.0 kva=1000.0 %r=0.55 maxtap=1.1 mintap=0.9 wdg=2 bus=7secondary.1.0 conn=wye kv=0.4 kva=1000.0 %r=0.55 maxtap=1.1 mintap=0.9
new transformer.22kV_7_2 phases=1 windings=2 xscarray=[2.0] wdg=1 bus=7.1.0 conn=wye kv=22.0 kva=1000.0 %r=0.55 maxtap=1.1 mintap=0.9 wdg=2 bus=7secondary.1.0 conn=wye kv=0.4 kva=1000.0 %r=0.55 maxtap=1.1 mintap=0.9
new transformer.22kV_7_3 phases=1 windings=2 xscarray=[2.0] wdg=1 bus=7.1.0 conn=wye kv=22.0 kva=1000.0 %r=0.55 maxtap=1.1 mintap=0.9 wdg=2 bus=7secondary.1.0 conn=wye kv=0.4 kva=1000.0 %r=0.55 maxtap=1.1 mintap=0.9
new transformer.22kV_7_4 phases=1 windings=2 xscarray=[2.0] wdg=1 bus=7.1.0 conn=wye kv=22.0 kva=1000.0 %r=0.55 maxtap=1.1 mintap=0.9 wdg=2 bus=7secondary.1.0 conn=wye kv=0.4 kva=1000.0 %r=0.55 maxtap=1.1 mintap=0.9
new transformer.22kV_7_5 phases=1 windings=2 xscarray=[2.0] wdg=1 bus=7.1.0 conn=wye kv=22.0 kva=1000.0 %r=0.55 maxtap=1.1 mintap=0.9 wdg=2 bus=7secondary.1.0 conn=wye kv=0.4 kva=1000.0 %r=0.55 maxtap=1.1 mintap=0.9
new transformer.22kV_8_1 phases=1 windings=2 xscarray=[2.0] wdg=1 bus=8.1.0 conn=wye kv=22.0 kva=1000.0 %r=0.55 maxtap=1.1 mintap=0.9 wdg=2 bus=8secondary.1.0 conn=wye kv=0.4 kva=1000.0 %r=0.55 maxtap=1.1 mintap=0.9
new transformer.22kV_9_1 phases=1 windings=2 xscarray=[2.0] wdg=1 bus=9.1.0 conn=wye kv=22.0 kva=1000.0 %r=0.55 maxtap=1.1 mintap=0.9 wdg=2 bus=9secondary.1.0 conn=wye kv=0.4 kva=1000.0 %r=0.55 maxtap=1.1 mintap=0.9
new transformer.22kV_10_1 phases=1 windings=2 xscarray=[2.0] wdg=1 bus=10.1.0 conn=wye kv=22.0 kva=1000.0 %r=0.55 maxtap=1.1 mintap=0.9 wdg=2 bus=10secondary.1.0 conn=wye kv=0.4 kva=1000.0 %r=0.55 maxtap=1.1 mintap=0.9
new transformer.22kV_10_2 phases=1 windings=2 xscarray=[2.0] wdg=1 bus=10.1.0 conn=wye kv=22.0 kva=1000.0 %r=0.55 maxtap=1.1 mintap=0.9 wdg=2 bus=10secondary.1.0 conn=wye kv=0.4 kva=1000.0 %r=0.55 maxtap=1.1 mintap=0.9
new transformer.22kV_10_3 phases=1 windings=2 xscarray=[2.0] wdg=1 bus=10.1.0 conn=wye kv=22.0 kva=1000.0 %r=0.55 maxtap=1.1 mintap=0.9 wdg=2 bus=10secondary.1.0 conn=wye kv=0.4 kva=1000.0 %r=0.55 maxtap=1.1 mintap=0.9
new transformer.22kV_10_4 phases=1 windings=2 xscarray=[2.0] wdg=1 bus=10.1.0 conn=wye kv=22.0 kva=1000.0 %r=0.55 maxtap=1.1 mintap=0.9 wdg=2 bus=10secondary.1.0 conn=wye kv=0.4 kva=1000.0 %r=0.55 maxtap=1.1 mintap=0.9
new transformer.22kV_10_5 phases=1 windings=2 xscarray=[2.0] wdg=1 bus=10.1.0 conn=wye kv=22.0 kva=1000.0 %r=0.55 maxtap=1.1 mintap=0.9 wdg=2 bus=10secondary.1.0 conn=wye kv=0.4 kva=1000.0 %r=0.55 maxtap=1.1 mintap=0.9
new transformer.22kV_11_1 phases=1 windings=2 xscarray=[2.0] wdg=1 bus=11.1.0 conn=wye kv=22.0 kva=1000.0 %r=0.55 maxtap=1.1 mintap=0.9 wdg=2 bus=11secondary.1.0 conn=wye kv=0.4 kva=1000.0 %r=0.55 maxtap=1.1 mintap=0.9
new transformer.22kV_11_2 phases=1 windings=2 xscarray=[2.0] wdg=1 bus=11.1.0 conn=wye kv=22.0 kva=1000.0 %r=0.55 maxtap=1.1 mintap=0.9 wdg=2 bus=11secondary.1.0 conn=wye kv=0.4 kva=1000.0 %r=0.55 maxtap=1.1 mintap=0.9
new transformer.22kV_11_3 phases=1 windings=2 xscarray=[2.0] wdg=1 bus=11.1.0 conn=wye kv=22.0 kva=1000.0 %r=0.55 maxtap=1.1 mintap=0.9 wdg=2 bus=11secondary.1.0 conn=wye kv=0.4 kva=1000.0 %r=0.55 maxtap=1.1 mintap=0.9
new transformer.22kV_11_4 phases=1 windings=2 xscarray=[2.0] wdg=1 bus=11.1.0 conn=wye kv=22.0 kva=1000.0 %r=0.55 maxtap=1.1 mintap=0.9 wdg=2 bus=11secondary.1.0 conn=wye kv=0.4 kva=1000.0 %r=0.55 maxtap=1.1 mintap=0.9
new transformer.22kV_11_5 phases=1 windings=2 xscarray=[2.0] wdg=1 bus=11.1.0 conn=wye kv=22.0 kva=1000.0 %r=0.55 maxtap=1.1 mintap=0.9 wdg=2 bus=11secondary.1.0 conn=wye kv=0.4 kva=1000.0 %r=0.55 maxtap=1.1 mintap=0.9
new transformer.22kV_12_1 phases=1 windings=2 xscarray=[2.0] wdg=1 bus=12.1.0 conn=wye kv=22.0 kva=1000.0 %r=0.55 maxtap=1.1 mintap=0.9 wdg=2 bus=12secondary.1.0 conn=wye kv=0.4 kva=1000.0 %r=0.55 maxtap=1.1 mintap=0.9
new transformer.22kV_13_1 phases=1 windings=2 xscarray=[2.0] wdg=1 bus=13.1.0 conn=wye kv=22.0 kva=1000.0 %r=0.55 maxtap=1.1 mintap=0.9 wdg=2 bus=13secondary.1.0 conn=wye kv=0.4 kva=1000.0 %r=0.55 maxtap=1.1 mintap=0.9
new transformer.22kV_14_1 phases=1 windings=2 xscarray=[2.0] wdg=1 bus=14.1.0 conn=wye kv=22.0 kva=1000.0 %r=0.55 maxtap=1.1 mintap=0.9 wdg=2 bus=14secondary.1.0 conn=wye kv=0.4 kva=1000.0 %r=0.55 maxtap=1.1 mintap=0.9
new transformer.22kV_14_2 phases=1 windings=2 xscarray=[2.0] wdg=1 bus=14.1.0 conn=wye kv=22.0 kva=1000.0 %r=0.55 maxtap=1.1 mintap=0.9 wdg=2 bus=14secondary.1.0 conn=wye kv=0.4 kva=1000.0 %r=0.55 maxtap=1.1 mintap=0.9
new transformer.22kV_14_3 phases=1 windings=2 xscarray=[2.0] wdg=1 bus=14.1.0 conn=wye kv=22.0 kva=1000.0 %r=0.55 maxtap=1.1 mintap=0.9 wdg=2 bus=14secondary.1.0 conn=wye kv=0.4 kva=1000.0 %r=0.55 maxtap=1.1 mintap=0.9
new transformer.22kV_15_1 phases=1 windings=2 xscarray=[2.0] wdg=1 bus=15.1.0 conn=wye kv=22.0 kva=1000.0 %r=0.55 maxtap=1.1 mintap=0.9 wdg=2 bus=15secondary.1.0 conn=wye kv=0.4 kva=1000.0 %r=0.55 maxtap=1.1 mintap=0.9
new transformer.22kV_15_2 phases=1 windings=2 xscarray=[2.0] wdg=1 bus=15.1.0 conn=wye kv=22.0 kva=1000.0 %r=0.55 maxtap=1.1 mintap=0.9 wdg=2 bus=15secondary.1.0 conn=wye kv=0.4 kva=1000.0 %r=0.55 maxtap=1.1 mintap=0.9
new transformer.22kV_15_3 phases=1 windings=2 xscarray=[2.0] wdg=1 bus=15.1.0 conn=wye kv=22.0 kva=1000.0 %r=0.55 maxtap=1.1 mintap=0.9 wdg=2 bus=15secondary.1.0 conn=wye kv=0.4 kva=1000.0 %r=0.55 maxtap=1.1 mintap=0.9
new transformer.22kV_16_1 phases=1 windings=2 xscarray=[2.0] wdg=1 bus=16.1.0 conn=wye kv=22.0 kva=1000.0 %r=0.55 maxtap=1.1 mintap=0.9 wdg=2 bus=16secondary.1.0 conn=wye kv=0.4 kva=1000.0 %r=0.55 maxtap=1.1 mintap=0.9
new transformer.22kV_17_1 phases=1 windings=2 xscarray=[2.0] wdg=1 bus=17.1.0 conn=wye kv=22.0 kva=1000.0 %r=0.55 maxtap=1.1 mintap=0.9 wdg=2 bus=17secondary.1.0 conn=wye kv=0.4 kva=1000.0 %r=0.55 maxtap=1.1 mintap=0.9
new transformer.22kV_18_1 phases=1 windings=2 xscarray=[2.0] wdg=1 bus=18.1.0 conn=wye kv=22.0 kva=1000.0 %r=0.55 maxtap=1.1 mintap=0.9 wdg=2 bus=18secondary.1.0 conn=wye kv=0.4 kva=1000.0 %r=0.55 maxtap=1.1 mintap=0.9
new transformer.22kV_19_1 phases=1 windings=2 xscarray=[2.0] wdg=1 bus=19.1.0 conn=wye kv=22.0 kva=1000.0 %r=0.55 maxtap=1.1 mintap=0.9 wdg=2 bus=19secondary.1.0 conn=wye kv=0.4 kva=1000.0 %r=0.55 maxtap=1.1 mintap=0.9
new transformer.22kV_20_1 phases=1 windings=2 xscarray=[2.0] wdg=1 bus=20.1.0 conn=wye kv=22.0 kva=1000.0 %r=0.55 maxtap=1.1 mintap=0.9 wdg=2 bus=20secondary.1.0 conn=wye kv=0.4 kva=1000.0 %r=0.55 maxtap=1.1 mintap=0.9
new transformer.22kV_21_1 phases=1 windings=2 xscarray=[2.0] wdg=1 bus=21.1.0 conn=wye kv=22.0 kva=1000.0 %r=0.55 maxtap=1.1 mintap=0.9 wdg=2 bus=21secondary.1.0 conn=wye kv=0.4 kva=1000.0 %r=0.55 maxtap=1.1 mintap=0.9
new transformer.22kV_22_1 phases=1 windings=2 xscarray=[2.0] wdg=1 bus=22.1.0 conn=wye kv=22.0 kva=1000.0 %r=0.55 maxtap=1.1 mintap=0.9 wdg=2 bus=22secondary.1.0 conn=wye kv=0.4 kva=1000.0 %r=0.55 maxtap=1.1 mintap=0.9
new transformer.22kV_23_1 phases=1 windings=2 xscarray=[2.0] wdg=1 bus=23.1.0 conn=wye kv=22.0 kva=1000.0 %r=0.55 maxtap=1.1 mintap=0.9 wdg=2 bus=23secondary.1.0 conn=wye kv=0.4 kva=1000.0 %r=0.55 maxtap=1.1 mintap=0.9
new transformer.22kV_24_1 phases=1 windings=2 xscarray=[2.0] wdg=1 bus=24.1.0 conn=wye kv=22.0 kva=1000.0 %r=0.55 maxtap=1.1 mintap=0.9 wdg=2 bus=24secondary.1.0 conn=wye kv=0.4 kva=1000.0 %r=0.55 maxtap=1.1 mintap=0.9
new transformer.22kV_25_1 phases=1 windings=2 xscarray=[2.0] wdg=1 bus=25.1.0 conn=wye kv=22.0 kva=1000.0 %r=0.55 maxtap=1.1 mintap=0.9 wdg=2 bus=25secondary.1.0 conn=wye kv=0.4 kva=1000.0 %r=0.55 maxtap=1.1 mintap=0.9
new transformer.22kV_26_1 phases=1 windings=2 xscarray=[2.0] wdg=1 bus=26.1.0 conn=wye kv=22.0 kva=1000.0 %r=0.55 maxtap=1.1 mintap=0.9 wdg=2 bus=26secondary.1.0 conn=wye kv=0.4 kva=1000.0 %r=0.55 maxtap=1.1 mintap=0.9
new transformer.22kV_27_1 phases=1 windings=2 xscarray=[2.0] wdg=1 bus=27.1.0 conn=wye kv=22.0 kva=1000.0 %r=0.55 maxtap=1.1 mintap=0.9 wdg=2 bus=27secondary.1.0 conn=wye kv=0.4 kva=1000.0 %r=0.55 maxtap=1.1 mintap=0.9
new transformer.22kV_28_1 phases=1 windings=2 xscarray=[2.0] wdg=1 bus=28.1.0 conn=wye kv=22.0 kva=1000.0 %r=0.55 maxtap=1.1 mintap=0.9 wdg=2 bus=28secondary.1.0 conn=wye kv=0.4 kva=1000.0 %r=0.55 maxtap=1.1 mintap=0.9
new transformer.22kV_29_1 phases=1 windings=2 xscarray=[2.0] wdg=1 bus=29.1.0 conn=wye kv=22.0 kva=1000.0 %r=0.55 maxtap=1.1 mintap=0.9 wdg=2 bus=29secondary.1.0 conn=wye kv=0.4 kva=1000.0 %r=0.55 maxtap=1.1 mintap=0.9
new transformer.22kV_30_1 phases=1 windings=2 xscarray=[2.0] wdg=1 bus=30.1.0 conn=wye kv=22.0 kva=1000.0 %r=0.55 maxtap=1.1 mintap=0.9 wdg=2 bus=30secondary.1.0 conn=wye kv=0.4 kva=1000.0 %r=0.55 maxtap=1.1 mintap=0.9
new transformer.22kV_31_1 phases=1 windings=2 xscarray=[2.0] wdg=1 bus=31.1.0 conn=wye kv=22.0 kva=1000.0 %r=0.55 maxtap=1.1 mintap=0.9 wdg=2 bus=31secondary.1.0 conn=wye kv=0.4 kva=1000.0 %r=0.55 maxtap=1.1 mintap=0.9
new transformer.22kV_32_1 phases=1 windings=2 xscarray=[2.0] wdg=1 bus=32.1.0 conn=wye kv=22.0 kva=1000.0 %r=0.55 maxtap=1.1 mintap=0.9 wdg=2 bus=32secondary.1.0 conn=wye kv=0.4 kva=1000.0 %r=0.55 maxtap=1.1 mintap=0.9
new transformer.22kV_33_1 phases=1 windings=2 xscarray=[2.0] wdg=1 bus=33.1.0 conn=wye kv=22.0 kva=1000.0 %r=0.55 maxtap=1.1 mintap=0.9 wdg=2 bus=33secondary.1.0 conn=wye kv=0.4 kva=1000.0 %r=0.55 maxtap=1.1 mintap=0.9
new transformer.22kV_34_1 phases=1 windings=2 xscarray=[2.0] wdg=1 bus=34.1.0 conn=wye kv=22.0 kva=1000.0 %r=0.55 maxtap=1.1 mintap=0.9 wdg=2 bus=34secondary.1.0 conn=wye kv=0.4 kva=1000.0 %r=0.55 maxtap=1.1 mintap=0.9
new transformer.22kV_35_1 phases=1 windings=2 xscarray=[2.0] wdg=1 bus=35.1.0 conn=wye kv=22.0 kva=1000.0 %r=0.55 maxtap=1.1 mintap=0.9 wdg=2 bus=35secondary.1.0 conn=wye kv=0.4 kva=1000.0 %r=0.55 maxtap=1.1 mintap=0.9
new transformer.22kV_36_1 phases=1 windings=2 xscarray=[2.0] wdg=1 bus=36.1.0 conn=wye kv=22.0 kva=1000.0 %r=0.55 maxtap=1.1 mintap=0.9 wdg=2 bus=36secondary.1.0 conn=wye kv=0.4 kva=1000.0 %r=0.55 maxtap=1.1 mintap=0.9
new transformer.22kV_37_1 phases=1 windings=2 xscarray=[2.0] wdg=1 bus=37.1.0 conn=wye kv=22.0 kva=1000.0 %r=0.55 maxtap=1.1 mintap=0.9 wdg=2 bus=37secondary.1.0 conn=wye kv=0.4 kva=1000.0 %r=0.55 maxtap=1.1 mintap=0.9
new transformer.22kV_38_1 phases=1 windings=2 xscarray=[2.0] wdg=1 bus=38.1.0 conn=wye kv=22.0 kva=1000.0 %r=0.55 maxtap=1.1 mintap=0.9 wdg=2 bus=38secondary.1.0 conn=wye kv=0.4 kva=1000.0 %r=0.55 maxtap=1.1 mintap=0.9
new transformer.22kV_39_1 phases=1 windings=2 xscarray=[2.0] wdg=1 bus=39.1.0 conn=wye kv=22.0 kva=1000.0 %r=0.55 maxtap=1.1 mintap=0.9 wdg=2 bus=39secondary.1.0 conn=wye kv=0.4 kva=1000.0 %r=0.55 maxtap=1.1 mintap=0.9
new transformer.22kV_40_1 phases=1 windings=2 xscarray=[2.0] wdg=1 bus=40.1.0 conn=wye kv=22.0 kva=1000.0 %r=0.55 maxtap=1.1 mintap=0.9 wdg=2 bus=40secondary.1.0 conn=wye kv=0.4 kva=1000.0 %r=0.55 maxtap=1.1 mintap=0.9
new transformer.22kV_41_1 phases=1 windings=2 xscarray=[2.0] wdg=1 bus=41.1.0 conn=wye kv=22.0 kva=1000.0 %r=0.55 maxtap=1.1 mintap=0.9 wdg=2 bus=41secondary.1.0 conn=wye kv=0.4 kva=1000.0 %r=0.55 maxtap=1.1 mintap=0.9
new transformer.22kV_42_1 phases=1 windings=2 xscarray=[2.0] wdg=1 bus=42.1.0 conn=wye kv=22.0 kva=1000.0 %r=0.55 maxtap=1.1 mintap=0.9 wdg=2 bus=42secondary.1.0 conn=wye kv=0.4 kva=1000.0 %r=0.55 maxtap=1.1 mintap=0.9
new transformer.22kV_43_1 phases=1 windings=2 xscarray=[2.0] wdg=1 bus=43.1.0 conn=wye kv=22.0 kva=1000.0 %r=0.55 maxtap=1.1 mintap=0.9 wdg=2 bus=43secondary.1.0 conn=wye kv=0.4 kva=1000.0 %r=0.55 maxtap=1.1 mintap=0.9
new transformer.22kV_44_1 phases=1 windings=2 xscarray=[2.0] wdg=1 bus=44.1.0 conn=wye kv=22.0 kva=1000.0 %r=0.55 maxtap=1.1 mintap=0.9 wdg=2 bus=44secondary.1.0 conn=wye kv=0.4 kva=1000.0 %r=0.55 maxtap=1.1 mintap=0.9
new transformer.22kV_45_1 phases=1 windings=2 xscarray=[2.0] wdg=1 bus=45.1.0 conn=wye kv=22.0 kva=1000.0 %r=0.55 maxtap=1.1 mintap=0.9 wdg=2 bus=45secondary.1.0 conn=wye kv=0.4 kva=1000.0 %r=0.55 maxtap=1.1 mintap=0.9
new transformer.22kV_46_1 phases=1 windings=2 xscarray=[2.0] wdg=1 bus=46.1.0 conn=wye kv=22.0 kva=1000.0 %r=0.55 maxtap=1.1 mintap=0.9 wdg=2 bus=46secondary.1.0 conn=wye kv=0.4 kva=1000.0 %r=0.55 maxtap=1.1 mintap=0.9
new transformer.22kV_47_1 phases=1 windings=2 xscarray=[2.0] wdg=1 bus=47.1.0 conn=wye kv=22.0 kva=1000.0 %r=0.55 maxtap=1.1 mintap=0.9 wdg=2 bus=47secondary.1.0 conn=wye kv=0.4 kva=1000.0 %r=0.55 maxtap=1.1 mintap=0.9
new transformer.22kV_48_1 phases=1 windings=2 xscarray=[2.0] wdg=1 bus=48.1.0 conn=wye kv=22.0 kva=1000.0 %r=0.55 maxtap=1.1 mintap=0.9 wdg=2 bus=48secondary.1.0 conn=wye kv=0.4 kva=1000.0 %r=0.55 maxtap=1.1 mintap=0.9
new transformer.22kV_49_1 phases=1 windings=2 xscarray=[2.0] wdg=1 bus=49.1.0 conn=wye kv=22.0 kva=1000.0 %r=0.55 maxtap=1.1 mintap=0.9 wdg=2 bus=49secondary.1.0 conn=wye kv=0.4 kva=1000.0 %r=0.55 maxtap=1.1 mintap=0.9
new transformer.22kV_50_1 phases=1 windings=2 xscarray=[2.0] wdg=1 bus=50.1.0 conn=wye kv=22.0 kva=1000.0 %r=0.55 maxtap=1.1 mintap=0.9 wdg=2 bus=50secondary.1.0 conn=wye kv=0.4 kva=1000.0 %r=0.55 maxtap=1.1 mintap=0.9
new transformer.22kV_51_1 phases=1 windings=2 xscarray=[2.0] wdg=1 bus=51.1.0 conn=wye kv=22.0 kva=1000.0 %r=0.55 maxtap=1.1 mintap=0.9 wdg=2 bus=51secondary.1.0 conn=wye kv=0.4 kva=1000.0 %r=0.55 maxtap=1.1 mintap=0.9
new transformer.22kV_52_1 phases=1 windings=2 xscarray=[2.0] wdg=1 bus=52.1.0 conn=wye kv=22.0 kva=1000.0 %r=0.55 maxtap=1.1 mintap=0.9 wdg=2 bus=52secondary.1.0 conn=wye kv=0.4 kva=1000.0 %r=0.55 maxtap=1.1 mintap=0.9
new transformer.22kV_53_1 phases=1 windings=2 xscarray=[2.0] wdg=1 bus=53.1.0 conn=wye kv=22.0 kva=1000.0 %r=0.55 maxtap=1.1 mintap=0.9 wdg=2 bus=53secondary.1.0 conn=wye kv=0.4 kva=1000.0 %r=0.55 maxtap=1.1 mintap=0.9
new transformer.22kV_54_1 phases=1 windings=2 xscarray=[2.0] wdg=1 bus=54.1.0 conn=wye kv=22.0 kva=1000.0 %r=0.55 maxtap=1.1 mintap=0.9 wdg=2 bus=54secondary.1.0 conn=wye kv=0.4 kva=1000.0 %r=0.55 maxtap=1.1 mintap=0.9
new transformer.22kV_55_1 phases=1 windings=2 xscarray=[2.0] wdg=1 bus=55.1.0 conn=wye kv=22.0 kva=1000.0 %r=0.55 maxtap=1.1 mintap=0.9 wdg=2 bus=55secondary.1.0 conn=wye kv=0.4 kva=1000.0 %r=0.55 maxtap=1.1 mintap=0.9
new transformer.22kV_56_1 phases=1 windings=2 xscarray=[2.0] wdg=1 bus=56.1.0 conn=wye kv=22.0 kva=1000.0 %r=0.55 maxtap=1.1 mintap=0.9 wdg=2 bus=56secondary.1.0 conn=wye kv=0.4 kva=1000.0 %r=0.55 maxtap=1.1 mintap=0.9
new transformer.22kV_57_1 phases=1 windings=2 xscarray=[2.0] wdg=1 bus=57.1.0 conn=wye kv=22.0 kva=1000.0 %r=0.55 maxtap=1.1 mintap=0.9 wdg=2 bus=57secondary.1.0 conn=wye kv=0.4 kva=1000.0 %r=0.55 maxtap=1.1 mintap=0.9
new transformer.22kV_58_1 phases=1 windings=2 xscarray=[2.0] wdg=1 bus=58.1.0 conn=wye kv=22.0 kva=1000.0 %r=0.55 maxtap=1.1 mintap=0.9 wdg=2 bus=58secondary.1.0 conn=wye kv=0.4 kva=1000.0 %r=0.55 maxtap=1.1 mintap=0.9
new transformer.22kV_59_1 phases=1 windings=2 xscarray=[2.0] wdg=1 bus=59.1.0 conn=wye kv=22.0 kva=1000.0 %r=0.55 maxtap=1.1 mintap=0.9 wdg=2 bus=59secondary.1.0 conn=wye kv=0.4 kva=1000.0 %r=0.55 maxtap=1.1 mintap=0.9
new transformer.22kV_60_1 phases=1 windings=2 xscarray=[2.0] wdg=1 bus=60.1.0 conn=wye kv=22.0 kva=1000.0 %r=0.55 maxtap=1.1 mintap=0.9 wdg=2 bus=60secondary.1.0 conn=wye kv=0.4 kva=1000.0 %r=0.55 maxtap=1.1 mintap=0.9
new transformer.22kV_61_1 phases=1 windings=2 xscarray=[2.0] wdg=1 bus=61.1.0 conn=wye kv=22.0 kva=1000.0 %r=0.55 maxtap=1.1 mintap=0.9 wdg=2 bus=61secondary.1.0 conn=wye kv=0.4 kva=1000.0 %r=0.55 maxtap=1.1 mintap=0.9
new transformer.22kV_62_1 phases=1 windings=2 xscarray=[2.0] wdg=1 bus=62.1.0 conn=wye kv=22.0 kva=1000.0 %r=0.55 maxtap=1.1 mintap=0.9 wdg=2 bus=62secondary.1.0 conn=wye kv=0.4 kva=1000.0 %r=0.55 maxtap=1.1 mintap=0.9
new transformer.22kV_63_1 phases=1 windings=2 xscarray=[2.0] wdg=1 bus=63.1.0 conn=wye kv=22.0 kva=1000.0 %r=0.55 maxtap=1.1 mintap=0.9 wdg=2 bus=63secondary.1.0 conn=wye kv=0.4 kva=1000.0 %r=0.55 maxtap=1.1 mintap=0.9
new transformer.22kV_64_1 phases=1 windings=2 xscarray=[2.0] wdg=1 bus=64.1.0 conn=wye kv=22.0 kva=1000.0 %r=0.55 maxtap=1.1 mintap=0.9 wdg=2 bus=64secondary.1.0 conn=wye kv=0.4 kva=1000.0 %r=0.55 maxtap=1.1 mintap=0.9
new transformer.22kV_65_1 phases=1 windings=2 xscarray=[2.0] wdg=1 bus=65.1.0 conn=wye kv=22.0 kva=1000.0 %r=0.55 maxtap=1.1 mintap=0.9 wdg=2 bus=65secondary.1.0 conn=wye kv=0.4 kva=1000.0 %r=0.55 maxtap=1.1 mintap=0.9
new transformer.22kV_66_1 phases=1 windings=2 xscarray=[2.0] wdg=1 bus=66.1.0 conn=wye kv=22.0 kva=1000.0 %r=0.55 maxtap=1.1 mintap=0.9 wdg=2 bus=66secondary.1.0 conn=wye kv=0.4 kva=1000.0 %r=0.55 maxtap=1.1 mintap=0.9
new transformer.22kV_67_1 phases=1 windings=2 xscarray=[2.0] wdg=1 bus=67.1.0 conn=wye kv=22.0 kva=1000.0 %r=0.55 maxtap=1.1 mintap=0.9 wdg=2 bus=67secondary.1.0 conn=wye kv=0.4 kva=1000.0 %r=0.55 maxtap=1.1 mintap=0.9
new transformer.22kV_68_1 phases=1 windings=2 xscarray=[2.0] wdg=1 bus=68.1.0 conn=wye kv=22.0 kva=1000.0 %r=0.55 maxtap=1.1 mintap=0.9 wdg=2 bus=68secondary.1.0 conn=wye kv=0.4 kva=1000.0 %r=0.55 maxtap=1.1 mintap=0.9
new transformer.22kV_69_1 phases=1 windings=2 xscarray=[2.0] wdg=1 bus=69.1.0 conn=wye kv=22.0 kva=1000.0 %r=0.55 maxtap=1.1 mintap=0.9 wdg=2 bus=69secondary.1.0 conn=wye kv=0.4 kva=1000.0 %r=0.55 maxtap=1.1 mintap=0.9
new transformer.22kV_70_1 phases=1 windings=2 xscarray=[2.0] wdg=1 bus=70.1.0 conn=wye kv=22.0 kva=1000.0 %r=0.55 maxtap=1.1 mintap=0.9 wdg=2 bus=70secondary.1.0 conn=wye kv=0.4 kva=1000.0 %r=0.55 maxtap=1.1 mintap=0.9
new transformer.22kV_71_1 phases=1 windings=2 xscarray=[2.0] wdg=1 bus=71.1.0 conn=wye kv=22.0 kva=1000.0 %r=0.55 maxtap=1.1 mintap=0.9 wdg=2 bus=71secondary.1.0 conn=wye kv=0.4 kva=1000.0 %r=0.55 maxtap=1.1 mintap=0.9
new transformer.22kV_72_1 phases=1 windings=2 xscarray=[2.0] wdg=1 bus=72.1.0 conn=wye kv=22.0 kva=1000.0 %r=0.55 maxtap=1.1 mintap=0.9 wdg=2 bus=72secondary.1.0 conn=wye kv=0.4 kva=1000.0 %r=0.55 maxtap=1.1 mintap=0.9
new transformer.22kV_73_1 phases=1 windings=2 xscarray=[2.0] wdg=1 bus=73.1.0 conn=wye kv=22.0 kva=1000.0 %r=0.55 maxtap=1.1 mintap=0.9 wdg=2 bus=73secondary.1.0 conn=wye kv=0.4 kva=1000.0 %r=0.55 maxtap=1.1 mintap=0.9
new transformer.22kV_74_1 phases=1 windings=2 xscarray=[2.0] wdg=1 bus=74.1.0 conn=wye kv=22.0 kva=1000.0 %r=0.55 maxtap=1.1 mintap=0.9 wdg=2 bus=74secondary.1.0 conn=wye kv=0.4 kva=1000.0 %r=0.55 maxtap=1.1 mintap=0.9
new transformer.22kV_74_2 phases=1 windings=2 xscarray=[2.0] wdg=1 bus=74.1.0 conn=wye kv=22.0 kva=1000.0 %r=0.55 maxtap=1.1 mintap=0.9 wdg=2 bus=74secondary.1.0 conn=wye kv=0.4 kva=1000.0 %r=0.55 maxtap=1.1 mintap=0.9
new transformer.22kV_74_3 phases=1 windings=2 xscarray=[2.0] wdg=1 bus=74.1.0 conn=wye kv=22.0 kva=1000.0 %r=0.55 maxtap=1.1 mintap=0.9 wdg=2 bus=74secondary.1.0 conn=wye kv=0.4 kva=1000.0 %r=0.55 maxtap=1.1 mintap=0.9
new transformer.22kV_74_4 phases=1 windings=2 xscarray=[2.0] wdg=1 bus=74.1.0 conn=wye kv=22.0 kva=1000.0 %r=0.55 maxtap=1.1 mintap=0.9 wdg=2 bus=74secondary.1.0 conn=wye kv=0.4 kva=1000.0 %r=0.55 maxtap=1.1 mintap=0.9
new transformer.22kV_74_5 phases=1 windings=2 xscarray=[2.0] wdg=1 bus=74.1.0 conn=wye kv=22.0 kva=1000.0 %r=0.55 maxtap=1.1 mintap=0.9 wdg=2 bus=74secondary.1.0 conn=wye kv=0.4 kva=1000.0 %r=0.55 maxtap=1.1 mintap=0.9
new transformer.22kV_75_1 phases=1 windings=2 xscarray=[2.0] wdg=1 bus=75.1.0 conn=wye kv=22.0 kva=1000.0 %r=0.55 maxtap=1.1 mintap=0.9 wdg=2 bus=75secondary.1.0 conn=wye kv=0.4 kva=1000.0 %r=0.55 maxtap=1.1 mintap=0.9
new transformer.22kV_76_1 phases=1 windings=2 xscarray=[2.0] wdg=1 bus=76.1.0 conn=wye kv=22.0 kva=1000.0 %r=0.55 maxtap=1.1 mintap=0.9 wdg=2 bus=76secondary.1.0 conn=wye kv=0.4 kva=1000.0 %r=0.55 maxtap=1.1 mintap=0.9
new transformer.22kV_76_2 phases=1 windings=2 xscarray=[2.0] wdg=1 bus=76.1.0 conn=wye kv=22.0 kva=1000.0 %r=0.55 maxtap=1.1 mintap=0.9 wdg=2 bus=76secondary.1.0 conn=wye kv=0.4 kva=1000.0 %r=0.55 maxtap=1.1 mintap=0.9
new transformer.22kV_76_3 phases=1 windings=2 xscarray=[2.0] wdg=1 bus=76.1.0 conn=wye kv=22.0 kva=1000.0 %r=0.55 maxtap=1.1 mintap=0.9 wdg=2 bus=76secondary.1.0 conn=wye kv=0.4 kva=1000.0 %r=0.55 maxtap=1.1 mintap=0.9
new transformer.22kV_76_4 phases=1 windings=2 xscarray=[2.0] wdg=1 bus=76.1.0 conn=wye kv=22.0 kva=1000.0 %r=0.55 maxtap=1.1 mintap=0.9 wdg=2 bus=76secondary.1.0 conn=wye kv=0.4 kva=1000.0 %r=0.55 maxtap=1.1 mintap=0.9
new transformer.22kV_76_5 phases=1 windings=2 xscarray=[2.0] wdg=1 bus=76.1.0 conn=wye kv=22.0 kva=1000.0 %r=0.55 maxtap=1.1 mintap=0.9 wdg=2 bus=76secondary.1.0 conn=wye kv=0.4 kva=1000.0 %r=0.55 maxtap=1.1 mintap=0.9
new transformer.22kV_76_6 phases=1 windings=2 xscarray=[2.0] wdg=1 bus=76.1.0 conn=wye kv=22.0 kva=1000.0 %r=0.55 maxtap=1.1 mintap=0.9 wdg=2 bus=76secondary.1.0 conn=wye kv=0.4 kva=1000.0 %r=0.55 maxtap=1.1 mintap=0.9
new transformer.22kV_77_1 phases=1 windings=2 xscarray=[2.0] wdg=1 bus=77.1.0 conn=wye kv=22.0 kva=1000.0 %r=0.55 maxtap=1.1 mintap=0.9 wdg=2 bus=77secondary.1.0 conn=wye kv=0.4 kva=1000.0 %r=0.55 maxtap=1.1 mintap=0.9
new transformer.22kV_78_1 phases=1 windings=2 xscarray=[2.0] wdg=1 bus=78.1.0 conn=wye kv=22.0 kva=1000.0 %r=0.55 maxtap=1.1 mintap=0.9 wdg=2 bus=78secondary.1.0 conn=wye kv=0.4 kva=1000.0 %r=0.55 maxtap=1.1 mintap=0.9
new transformer.22kV_79_1 phases=1 windings=2 xscarray=[2.0] wdg=1 bus=79.1.0 conn=wye kv=22.0 kva=1000.0 %r=0.55 maxtap=1.1 mintap=0.9 wdg=2 bus=79secondary.1.0 conn=wye kv=0.4 kva=1000.0 %r=0.55 maxtap=1.1 mintap=0.9
new transformer.22kV_80_1 phases=1 windings=2 xscarray=[2.0] wdg=1 bus=80.1.0 conn=wye kv=22.0 kva=1000.0 %r=0.55 maxtap=1.1 mintap=0.9 wdg=2 bus=80secondary.1.0 conn=wye kv=0.4 kva=1000.0 %r=0.55 maxtap=1.1 mintap=0.9
new transformer.22kV_80_2 phases=1 windings=2 xscarray=[2.0] wdg=1 bus=80.1.0 conn=wye kv=22.0 kva=1000.0 %r=0.55 maxtap=1.1 mintap=0.9 wdg=2 bus=80secondary.1.0 conn=wye kv=0.4 kva=1000.0 %r=0.55 maxtap=1.1 mintap=0.9
new transformer.22kV_80_3 phases=1 windings=2 xscarray=[2.0] wdg=1 bus=80.1.0 conn=wye kv=22.0 kva=1000.0 %r=0.55 maxtap=1.1 mintap=0.9 wdg=2 bus=80secondary.1.0 conn=wye kv=0.4 kva=1000.0 %r=0.55 maxtap=1.1 mintap=0.9
new transformer.22kV_80_4 phases=1 windings=2 xscarray=[2.0] wdg=1 bus=80.1.0 conn=wye kv=22.0 kva=1000.0 %r=0.55 maxtap=1.1 mintap=0.9 wdg=2 bus=80secondary.1.0 conn=wye kv=0.4 kva=1000.0 %r=0.55 maxtap=1.1 mintap=0.9
new transformer.22kV_80_5 phases=1 windings=2 xscarray=[2.0] wdg=1 bus=80.1.0 conn=wye kv=22.0 kva=1000.0 %r=0.55 maxtap=1.1 mintap=0.9 wdg=2 bus=80secondary.1.0 conn=wye kv=0.4 kva=1000.0 %r=0.55 maxtap=1.1 mintap=0.9
new transformer.22kV_81_1 phases=1 windings=2 xscarray=[2.0] wdg=1 bus=81.1.0 conn=wye kv=22.0 kva=1000.0 %r=0.55 maxtap=1.1 mintap=0.9 wdg=2 bus=81secondary.1.0 conn=wye kv=0.4 kva=1000.0 %r=0.55 maxtap=1.1 mintap=0.9
new transformer.22kV_81_2 phases=1 windings=2 xscarray=[2.0] wdg=1 bus=81.1.0 conn=wye kv=22.0 kva=1000.0 %r=0.55 maxtap=1.1 mintap=0.9 wdg=2 bus=81secondary.1.0 conn=wye kv=0.4 kva=1000.0 %r=0.55 maxtap=1.1 mintap=0.9
new transformer.22kV_81_3 phases=1 windings=2 xscarray=[2.0] wdg=1 bus=81.1.0 conn=wye kv=22.0 kva=1000.0 %r=0.55 maxtap=1.1 mintap=0.9 wdg=2 bus=81secondary.1.0 conn=wye kv=0.4 kva=1000.0 %r=0.55 maxtap=1.1 mintap=0.9
new transformer.22kV_81_4 phases=1 windings=2 xscarray=[2.0] wdg=1 bus=81.1.0 conn=wye kv=22.0 kva=1000.0 %r=0.55 maxtap=1.1 mintap=0.9 wdg=2 bus=81secondary.1.0 conn=wye kv=0.4 kva=1000.0 %r=0.55 maxtap=1.1 mintap=0.9
new transformer.22kV_81_5 phases=1 windings=2 xscarray=[2.0] wdg=1 bus=81.1.0 conn=wye kv=22.0 kva=1000.0 %r=0.55 maxtap=1.1 mintap=0.9 wdg=2 bus=81secondary.1.0 conn=wye kv=0.4 kva=1000.0 %r=0.55 maxtap=1.1 mintap=0.9
new transformer.22kV_82_1 phases=1 windings=2 xscarray=[2.0] wdg=1 bus=82.1.0 conn=wye kv=22.0 kva=1000.0 %r=0.55 maxtap=1.1 mintap=0.9 wdg=2 bus=82secondary.1.0 conn=wye kv=0.4 kva=1000.0 %r=0.55 maxtap=1.1 mintap=0.9
new transformer.22kV_82_2 phases=1 windings=2 xscarray=[2.0] wdg=1 bus=82.1.0 conn=wye kv=22.0 kva=1000.0 %r=0.55 maxtap=1.1 mintap=0.9 wdg=2 bus=82secondary.1.0 conn=wye kv=0.4 kva=1000.0 %r=0.55 maxtap=1.1 mintap=0.9
new transformer.22kV_82_3 phases=1 windings=2 xscarray=[2.0] wdg=1 bus=82.1.0 conn=wye kv=22.0 kva=1000.0 %r=0.55 maxtap=1.1 mintap=0.9 wdg=2 bus=82secondary.1.0 conn=wye kv=0.4 kva=1000.0 %r=0.55 maxtap=1.1 mintap=0.9
new transformer.22kV_82_4 phases=1 windings=2 xscarray=[2.0] wdg=1 bus=82.1.0 conn=wye kv=22.0 kva=1000.0 %r=0.55 maxtap=1.1 mintap=0.9 wdg=2 bus=82secondary.1.0 conn=wye kv=0.4 kva=1000.0 %r=0.55 maxtap=1.1 mintap=0.9
new transformer.22kV_82_5 phases=1 windings=2 xscarray=[2.0] wdg=1 bus=82.1.0 conn=wye kv=22.0 kva=1000.0 %r=0.55 maxtap=1.1 mintap=0.9 wdg=2 bus=82secondary.1.0 conn=wye kv=0.4 kva=1000.0 %r=0.55 maxtap=1.1 mintap=0.9
new transformer.22kV_83_1 phases=1 windings=2 xscarray=[2.0] wdg=1 bus=83.1.0 conn=wye kv=22.0 kva=1000.0 %r=0.55 maxtap=1.1 mintap=0.9 wdg=2 bus=83secondary.1.0 conn=wye kv=0.4 kva=1000.0 %r=0.55 maxtap=1.1 mintap=0.9
new transformer.22kV_83_2 phases=1 windings=2 xscarray=[2.0] wdg=1 bus=83.1.0 conn=wye kv=22.0 kva=1000.0 %r=0.55 maxtap=1.1 mintap=0.9 wdg=2 bus=83secondary.1.0 conn=wye kv=0.4 kva=1000.0 %r=0.55 maxtap=1.1 mintap=0.9
new transformer.22kV_83_3 phases=1 windings=2 xscarray=[2.0] wdg=1 bus=83.1.0 conn=wye kv=22.0 kva=1000.0 %r=0.55 maxtap=1.1 mintap=0.9 wdg=2 bus=83secondary.1.0 conn=wye kv=0.4 kva=1000.0 %r=0.55 maxtap=1.1 mintap=0.9
new transformer.22kV_83_4 phases=1 windings=2 xscarray=[2.0] wdg=1 bus=83.1.0 conn=wye kv=22.0 kva=1000.0 %r=0.55 maxtap=1.1 mintap=0.9 wdg=2 bus=83secondary.1.0 conn=wye kv=0.4 kva=1000.0 %r=0.55 maxtap=1.1 mintap=0.9
new transformer.22kV_83_5 phases=1 windings=2 xscarray=[2.0] wdg=1 bus=83.1.0 conn=wye kv=22.0 kva=1000.0 %r=0.55 maxtap=1.1 mintap=0.9 wdg=2 bus=83secondary.1.0 conn=wye kv=0.4 kva=1000.0 %r=0.55 maxtap=1.1 mintap=0.9
new transformer.22kV_84_1 phases=1 windings=2 xscarray=[2.0] wdg=1 bus=84.1.0 conn=wye kv=22.0 kva=1000.0 %r=0.55 maxtap=1.1 mintap=0.9 wdg=2 bus=84secondary.1.0 conn=wye kv=0.4 kva=1000.0 %r=0.55 maxtap=1.1 mintap=0.9
new transformer.22kV_84_2 phases=1 windings=2 xscarray=[2.0] wdg=1 bus=84.1.0 conn=wye kv=22.0 kva=1000.0 %r=0.55 maxtap=1.1 mintap=0.9 wdg=2 bus=84secondary.1.0 conn=wye kv=0.4 kva=1000.0 %r=0.55 maxtap=1.1 mintap=0.9
new transformer.22kV_85_1 phases=1 windings=2 xscarray=[2.0] wdg=1 bus=85.1.0 conn=wye kv=22.0 kva=1000.0 %r=0.55 maxtap=1.1 mintap=0.9 wdg=2 bus=85secondary.1.0 conn=wye kv=0.4 kva=1000.0 %r=0.55 maxtap=1.1 mintap=0.9
new transformer.22kV_85_2 phases=1 windings=2 xscarray=[2.0] wdg=1 bus=85.1.0 conn=wye kv=22.0 kva=1000.0 %r=0.55 maxtap=1.1 mintap=0.9 wdg=2 bus=85secondary.1.0 conn=wye kv=0.4 kva=1000.0 %r=0.55 maxtap=1.1 mintap=0.9
new transformer.22kV_86_1 phases=1 windings=2 xscarray=[2.0] wdg=1 bus=86.1.0 conn=wye kv=22.0 kva=1000.0 %r=0.55 maxtap=1.1 mintap=0.9 wdg=2 bus=86secondary.1.0 conn=wye kv=0.4 kva=1000.0 %r=0.55 maxtap=1.1 mintap=0.9
new transformer.22kV_86_2 phases=1 windings=2 xscarray=[2.0] wdg=1 bus=86.1.0 conn=wye kv=22.0 kva=1000.0 %r=0.55 maxtap=1.1 mintap=0.9 wdg=2 bus=86secondary.1.0 conn=wye kv=0.4 kva=1000.0 %r=0.55 maxtap=1.1 mintap=0.9
new transformer.22kV_86_3 phases=1 windings=2 xscarray=[2.0] wdg=1 bus=86.1.0 conn=wye kv=22.0 kva=1000.0 %r=0.55 maxtap=1.1 mintap=0.9 wdg=2 bus=86secondary.1.0 conn=wye kv=0.4 kva=1000.0 %r=0.55 maxtap=1.1 mintap=0.9
new transformer.22kV_86_4 phases=1 windings=2 xscarray=[2.0] wdg=1 bus=86.1.0 conn=wye kv=22.0 kva=1000.0 %r=0.55 maxtap=1.1 mintap=0.9 wdg=2 bus=86secondary.1.0 conn=wye kv=0.4 kva=1000.0 %r=0.55 maxtap=1.1 mintap=0.9
new transformer.22kV_87_1 phases=1 windings=2 xscarray=[2.0] wdg=1 bus=87.1.0 conn=wye kv=22.0 kva=1000.0 %r=0.55 maxtap=1.1 mintap=0.9 wdg=2 bus=87secondary.1.0 conn=wye kv=0.4 kva=1000.0 %r=0.55 maxtap=1.1 mintap=0.9
new transformer.22kV_88_1 phases=1 windings=2 xscarray=[2.0] wdg=1 bus=88.1.0 conn=wye kv=22.0 kva=1000.0 %r=0.55 maxtap=1.1 mintap=0.9 wdg=2 bus=88secondary.1.0 conn=wye kv=0.4 kva=1000.0 %r=0.55 maxtap=1.1 mintap=0.9
new transformer.22kV_89_1 phases=1 windings=2 xscarray=[2.0] wdg=1 bus=89.1.0 conn=wye kv=22.0 kva=1000.0 %r=0.55 maxtap=1.1 mintap=0.9 wdg=2 bus=89secondary.1.0 conn=wye kv=0.4 kva=1000.0 %r=0.55 maxtap=1.1 mintap=0.9
new transformer.22kV_90_1 phases=1 windings=2 xscarray=[2.0] wdg=1 bus=90.1.0 conn=wye kv=22.0 kva=1000.0 %r=0.55 maxtap=1.1 mintap=0.9 wdg=2 bus=90secondary.1.0 conn=wye kv=0.4 kva=1000.0 %r=0.55 maxtap=1.1 mintap=0.9
new transformer.22kV_91_1 phases=1 windings=2 xscarray=[2.0] wdg=1 bus=91.1.0 conn=wye kv=22.0 kva=1000.0 %r=0.55 maxtap=1.1 mintap=0.9 wdg=2 bus=91secondary.1.0 conn=wye kv=0.4 kva=1000.0 %r=0.55 maxtap=1.1 mintap=0.9
new transformer.22kV_92_1 phases=1 windings=2 xscarray=[2.0] wdg=1 bus=92.1.0 conn=wye kv=22.0 kva=1000.0 %r=0.55 maxtap=1.1 mintap=0.9 wdg=2 bus=92secondary.1.0 conn=wye kv=0.4 kva=1000.0 %r=0.55 maxtap=1.1 mintap=0.9
new transformer.22kV_92_2 phases=1 windings=2 xscarray=[2.0] wdg=1 bus=92.1.0 conn=wye kv=22.0 kva=1000.0 %r=0.55 maxtap=1.1 mintap=0.9 wdg=2 bus=92secondary.1.0 conn=wye kv=0.4 kva=1000.0 %r=0.55 maxtap=1.1 mintap=0.9
new transformer.22kV_92_3 phases=1 windings=2 xscarray=[2.0] wdg=1 bus=92.1.0 conn=wye kv=22.0 kva=1000.0 %r=0.55 maxtap=1.1 mintap=0.9 wdg=2 bus=92secondary.1.0 conn=wye kv=0.4 kva=1000.0 %r=0.55 maxtap=1.1 mintap=0.9
new transformer.22kV_92_4 phases=1 windings=2 xscarray=[2.0] wdg=1 bus=92.1.0 conn=wye kv=22.0 kva=1000.0 %r=0.55 maxtap=1.1 mintap=0.9 wdg=2 bus=92secondary.1.0 conn=wye kv=0.4 kva=1000.0 %r=0.55 maxtap=1.1 mintap=0.9
new transformer.22kV_92_5 phases=1 windings=2 xscarray=[2.0] wdg=1 bus=92.1.0 conn=wye kv=22.0 kva=1000.0 %r=0.55 maxtap=1.1 mintap=0.9 wdg=2 bus=92secondary.1.0 conn=wye kv=0.4 kva=1000.0 %r=0.55 maxtap=1.1 mintap=0.9
new transformer.22kV_92_6 phases=1 windings=2 xscarray=[2.0] wdg=1 bus=92.1.0 conn=wye kv=22.0 kva=1000.0 %r=0.55 maxtap=1.1 mintap=0.9 wdg=2 bus=92secondary.1.0 conn=wye kv=0.4 kva=1000.0 %r=0.55 maxtap=1.1 mintap=0.9
new transformer.22kV_93_1 phases=1 windings=2 xscarray=[2.0] wdg=1 bus=93.1.0 conn=wye kv=22.0 kva=1000.0 %r=0.55 maxtap=1.1 mintap=0.9 wdg=2 bus=93secondary.1.0 conn=wye kv=0.4 kva=1000.0 %r=0.55 maxtap=1.1 mintap=0.9
new transformer.22kV_93_2 phases=1 windings=2 xscarray=[2.0] wdg=1 bus=93.1.0 conn=wye kv=22.0 kva=1000.0 %r=0.55 maxtap=1.1 mintap=0.9 wdg=2 bus=93secondary.1.0 conn=wye kv=0.4 kva=1000.0 %r=0.55 maxtap=1.1 mintap=0.9
new transformer.22kV_93_3 phases=1 windings=2 xscarray=[2.0] wdg=1 bus=93.1.0 conn=wye kv=22.0 kva=1000.0 %r=0.55 maxtap=1.1 mintap=0.9 wdg=2 bus=93secondary.1.0 conn=wye kv=0.4 kva=1000.0 %r=0.55 maxtap=1.1 mintap=0.9
new transformer.22kV_93_4 phases=1 windings=2 xscarray=[2.0] wdg=1 bus=93.1.0 conn=wye kv=22.0 kva=1000.0 %r=0.55 maxtap=1.1 mintap=0.9 wdg=2 bus=93secondary.1.0 conn=wye kv=0.4 kva=1000.0 %r=0.55 maxtap=1.1 mintap=0.9
new transformer.22kV_93_5 phases=1 windings=2 xscarray=[2.0] wdg=1 bus=93.1.0 conn=wye kv=22.0 kva=1000.0 %r=0.55 maxtap=1.1 mintap=0.9 wdg=2 bus=93secondary.1.0 conn=wye kv=0.4 kva=1000.0 %r=0.55 maxtap=1.1 mintap=0.9
new transformer.22kV_93_6 phases=1 windings=2 xscarray=[2.0] wdg=1 bus=93.1.0 conn=wye kv=22.0 kva=1000.0 %r=0.55 maxtap=1.1 mintap=0.9 wdg=2 bus=93secondary.1.0 conn=wye kv=0.4 kva=1000.0 %r=0.55 maxtap=1.1 mintap=0.9
new transformer.22kV_94_1 phases=1 windings=2 xscarray=[2.0] wdg=1 bus=94.1.0 conn=wye kv=22.0 kva=1000.0 %r=0.55 maxtap=1.1 mintap=0.9 wdg=2 bus=94secondary.1.0 conn=wye kv=0.4 kva=1000.0 %r=0.55 maxtap=1.1 mintap=0.9
new transformer.22kV_95_1 phases=1 windings=2 xscarray=[2.0] wdg=1 bus=95.1.0 conn=wye kv=22.0 kva=1000.0 %r=0.55 maxtap=1.1 mintap=0.9 wdg=2 bus=95secondary.1.0 conn=wye kv=0.4 kva=1000.0 %r=0.55 maxtap=1.1 mintap=0.9
new transformer.22kV_96_1 phases=1 windings=2 xscarray=[2.0] wdg=1 bus=96.1.0 conn=wye kv=22.0 kva=1000.0 %r=0.55 maxtap=1.1 mintap=0.9 wdg=2 bus=96secondary.1.0 conn=wye kv=0.4 kva=1000.0 %r=0.55 maxtap=1.1 mintap=0.9
new transformer.22kV_97_1 phases=1 windings=2 xscarray=[2.0] wdg=1 bus=97.1.0 conn=wye kv=22.0 kva=1000.0 %r=0.55 maxtap=1.1 mintap=0.9 wdg=2 bus=97secondary.1.0 conn=wye kv=0.4 kva=1000.0 %r=0.55 maxtap=1.1 mintap=0.9
new transformer.22kV_98_1 phases=1 windings=2 xscarray=[2.0] wdg=1 bus=98.1.0 conn=wye kv=22.0 kva=1000.0 %r=0.55 maxtap=1.1 mintap=0.9 wdg=2 bus=98secondary.1.0 conn=wye kv=0.4 kva=1000.0 %r=0.55 maxtap=1.1 mintap=0.9
new transformer.22kV_99_1 phases=1 windings=2 xscarray=[2.0] wdg=1 bus=99.1.0 conn=wye kv=22.0 kva=1000.0 %r=0.55 maxtap=1.1 mintap=0.9 wdg=2 bus=99secondary.1.0 conn=wye kv=0.4 kva=1000.0 %r=0.55 maxtap=1.1 mintap=0.9
new transformer.22kV_100_1 phases=1 windings=2 xscarray=[2.0] wdg=1 bus=100.1.0 conn=wye kv=22.0 kva=1000.0 %r=0.55 maxtap=1.1 mintap=0.9 wdg=2 bus=100secondary.1.0 conn=wye kv=0.4 kva=1000.0 %r=0.55 maxtap=1.1 mintap=0.9
new transformer.22kV_101_1 phases=1 windings=2 xscarray=[2.0] wdg=1 bus=101.1.0 conn=wye kv=22.0 kva=1000.0 %r=0.55 maxtap=1.1 mintap=0.9 wdg=2 bus=101secondary.1.0 conn=wye kv=0.4 kva=1000.0 %r=0.55 maxtap=1.1 mintap=0.9
new transformer.22kV_102_1 phases=1 windings=2 xscarray=[2.0] wdg=1 bus=102.1.0 conn=wye kv=22.0 kva=1000.0 %r=0.55 maxtap=1.1 mintap=0.9 wdg=2 bus=102secondary.1.0 conn=wye kv=0.4 kva=1000.0 %r=0.55 maxtap=1.1 mintap=0.9
new transformer.22kV_103_1 phases=1 windings=2 xscarray=[2.0] wdg=1 bus=103.1.0 conn=wye kv=22.0 kva=1000.0 %r=0.55 maxtap=1.1 mintap=0.9 wdg=2 bus=103secondary.1.0 conn=wye kv=0.4 kva=1000.0 %r=0.55 maxtap=1.1 mintap=0.9
new transformer.22kV_104_1 phases=1 windings=2 xscarray=[2.0] wdg=1 bus=104.1.0 conn=wye kv=22.0 kva=1000.0 %r=0.55 maxtap=1.1 mintap=0.9 wdg=2 bus=104secondary.1.0 conn=wye kv=0.4 kva=1000.0 %r=0.55 maxtap=1.1 mintap=0.9
new transformer.22kV_105_1 phases=1 windings=2 xscarray=[2.0] wdg=1 bus=105.1.0 conn=wye kv=22.0 kva=1000.0 %r=0.55 maxtap=1.1 mintap=0.9 wdg=2 bus=105secondary.1.0 conn=wye kv=0.4 kva=1000.0 %r=0.55 maxtap=1.1 mintap=0.9
new transformer.22kV_106_1 phases=1 windings=2 xscarray=[2.0] wdg=1 bus=106.1.0 conn=wye kv=22.0 kva=1000.0 %r=0.55 maxtap=1.1 mintap=0.9 wdg=2 bus=106secondary.1.0 conn=wye kv=0.4 kva=1000.0 %r=0.55 maxtap=1.1 mintap=0.9
new transformer.22kV_107_1 phases=1 windings=2 xscarray=[2.0] wdg=1 bus=107.1.0 conn=wye kv=22.0 kva=1000.0 %r=0.55 maxtap=1.1 mintap=0.9 wdg=2 bus=107secondary.1.0 conn=wye kv=0.4 kva=1000.0 %r=0.55 maxtap=1.1 mintap=0.9
new transformer.22kV_108_1 phases=1 windings=2 xscarray=[2.0] wdg=1 bus=108.1.0 conn=wye kv=22.0 kva=1000.0 %r=0.55 maxtap=1.1 mintap=0.9 wdg=2 bus=108secondary.1.0 conn=wye kv=0.4 kva=1000.0 %r=0.55 maxtap=1.1 mintap=0.9
new transformer.22kV_109_1 phases=1 windings=2 xscarray=[2.0] wdg=1 bus=109.1.0 conn=wye kv=22.0 kva=1000.0 %r=0.55 maxtap=1.1 mintap=0.9 wdg=2 bus=109secondary.1.0 conn=wye kv=0.4 kva=1000.0 %r=0.55 maxtap=1.1 mintap=0.9
new transformer.22kV_110_1 phases=1 windings=2 xscarray=[2.0] wdg=1 bus=110.1.0 conn=wye kv=22.0 kva=1000.0 %r=0.55 maxtap=1.1 mintap=0.9 wdg=2 bus=110secondary.1.0 conn=wye kv=0.4 kva=1000.0 %r=0.55 maxtap=1.1 mintap=0.9
new transformer.22kV_111_1 phases=1 windings=2 xscarray=[2.0] wdg=1 bus=111.1.0 conn=wye kv=22.0 kva=1000.0 %r=0.55 maxtap=1.1 mintap=0.9 wdg=2 bus=111secondary.1.0 conn=wye kv=0.4 kva=1000.0 %r=0.55 maxtap=1.1 mintap=0.9
new transformer.22kV_112_1 phases=1 windings=2 xscarray=[2.0] wdg=1 bus=112.1.0 conn=wye kv=22.0 kva=1000.0 %r=0.55 maxtap=1.1 mintap=0.9 wdg=2 bus=112secondary.1.0 conn=wye kv=0.4 kva=1000.0 %r=0.55 maxtap=1.1 mintap=0.9
new transformer.22kV_113_1 phases=1 windings=2 xscarray=[2.0] wdg=1 bus=113.1.0 conn=wye kv=22.0 kva=1000.0 %r=0.55 maxtap=1.1 mintap=0.9 wdg=2 bus=113secondary.1.0 conn=wye kv=0.4 kva=1000.0 %r=0.55 maxtap=1.1 mintap=0.9
new transformer.22kV_113_2 phases=1 windings=2 xscarray=[2.0] wdg=1 bus=113.1.0 conn=wye kv=22.0 kva=1000.0 %r=0.55 maxtap=1.1 mintap=0.9 wdg=2 bus=113secondary.1.0 conn=wye kv=0.4 kva=1000.0 %r=0.55 maxtap=1.1 mintap=0.9
new transformer.22kV_113_3 phases=1 windings=2 xscarray=[2.0] wdg=1 bus=113.1.0 conn=wye kv=22.0 kva=1000.0 %r=0.55 maxtap=1.1 mintap=0.9 wdg=2 bus=113secondary.1.0 conn=wye kv=0.4 kva=1000.0 %r=0.55 maxtap=1.1 mintap=0.9
new transformer.22kV_113_4 phases=1 windings=2 xscarray=[2.0] wdg=1 bus=113.1.0 conn=wye kv=22.0 kva=1000.0 %r=0.55 maxtap=1.1 mintap=0.9 wdg=2 bus=113secondary.1.0 conn=wye kv=0.4 kva=1000.0 %r=0.55 maxtap=1.1 mintap=0.9
new transformer.22kV_113_5 phases=1 windings=2 xscarray=[2.0] wdg=1 bus=113.1.0 conn=wye kv=22.0 kva=1000.0 %r=0.55 maxtap=1.1 mintap=0.9 wdg=2 bus=113secondary.1.0 conn=wye kv=0.4 kva=1000.0 %r=0.55 maxtap=1.1 mintap=0.9
new transformer.22kV_113_6 phases=1 windings=2 xscarray=[2.0] wdg=1 bus=113.1.0 conn=wye kv=22.0 kva=1000.0 %r=0.55 maxtap=1.1 mintap=0.9 wdg=2 bus=113secondary.1.0 conn=wye kv=0.4 kva=1000.0 %r=0.55 maxtap=1.1 mintap=0.9
new transformer.22kV_114_1 phases=1 windings=2 xscarray=[2.0] wdg=1 bus=114.1.0 conn=wye kv=22.0 kva=1000.0 %r=0.55 maxtap=1.1 mintap=0.9 wdg=2 bus=114secondary.1.0 conn=wye kv=0.4 kva=1000.0 %r=0.55 maxtap=1.1 mintap=0.9
new transformer.22kV_115_1 phases=1 windings=2 xscarray=[2.0] wdg=1 bus=115.1.0 conn=wye kv=22.0 kva=1000.0 %r=0.55 maxtap=1.1 mintap=0.9 wdg=2 bus=115secondary.1.0 conn=wye kv=0.4 kva=1000.0 %r=0.55 maxtap=1.1 mintap=0.9
new transformer.22kV_116_1 phases=1 windings=2 xscarray=[2.0] wdg=1 bus=116.1.0 conn=wye kv=22.0 kva=1000.0 %r=0.55 maxtap=1.1 mintap=0.9 wdg=2 bus=116secondary.1.0 conn=wye kv=0.4 kva=1000.0 %r=0.55 maxtap=1.1 mintap=0.9
new transformer.22kV_117_1 phases=1 windings=2 xscarray=[2.0] wdg=1 bus=117.1.0 conn=wye kv=22.0 kva=1000.0 %r=0.55 maxtap=1.1 mintap=0.9 wdg=2 bus=117secondary.1.0 conn=wye kv=0.4 kva=1000.0 %r=0.55 maxtap=1.1 mintap=0.9
...